sim-outorder rijndael.ss input_rijndael.asc output_small.enc e 1234567890abcdeffedcba09876543211234567890abcdeffedcba0987654321


