sim-outorder dijkstra_small.ss input.dat 


